21
c0
 C                  0.25163900   23.12373200    0.00000000
 C                 -1.35660700   21.20987000    0.00000000
 C                  1.10500600   20.77401700    0.00000000
 C                 -1.12436900   22.64990800    0.00000000
 C                 -0.25826100   20.25512200    0.00000000
 C                  1.38263000   22.20258800    0.00000000
 C                  0.53764400   24.48322100    0.00000000
 C                 -2.67694300   20.77778100    0.00000000
 C                  2.13935600   19.84658400    0.00000000
 O                  2.57445700   22.64127800    0.00000000
 O                 -2.10020000   23.46271500    0.00000000
 O                 -0.47425800   19.00362400    0.00000000
 N                 -0.42058300   25.41420700    0.00000000
 N                 -3.00412500   19.48250300    0.00000000
 N                  3.42465200   20.21094200    0.00000000
 H                  1.58603800   24.78670100    0.00000000
 H                 -3.46400000   21.53404100    0.00000000
 H                  1.87790600   18.78690900    0.00000000
 H                 -1.37235400   24.96380700    0.00000000
 H                 -2.13816300   18.88341300    0.00000000
 H                  3.51049800   21.26043300    0.00000000