21
c1
 C                 18.54331000    9.43007900    0.00000000
 C                 20.15155900   11.34394000    0.00000000
 C                 17.68998200   11.77979200    0.00000000
 C                 19.91932000    9.90390100    0.00000000
 C                 19.05321100   12.29868700    0.00000000
 C                 17.41231900   10.35122200    0.00000000
 C                 18.25730300    8.07059000    0.00000000
 C                 21.47189500   11.77602800    0.00000000
 C                 16.65559600   12.70722400    0.00000000
 O                 16.22049300    9.91253100    0.00000000
 O                 20.89515100    9.09109300    0.00000000
 O                 19.26920700   13.55018400    0.00000000
 N                 19.21553400    7.13960200    0.00000000
 N                 21.79907600   13.07130700    0.00000000
 N                 15.37029800   12.34286800    0.00000000
 H                 17.20891200    7.76710800    0.00000000
 H                 22.25895000   11.01976900    0.00000000
 H                 16.91704600   13.76690000    0.00000000
 H                 20.16730500    7.59000300    0.00000000
 H                 20.93311400   13.67039700    0.00000000
 H                 15.28443400   11.29341000    0.00000000