30
l0
 C                  4.55298800   19.39445100    0.00000000
 C                 14.24196500   13.15935700    0.00000000
 C                  4.49739100   17.99174300    0.00000000
 C                 14.29755800   14.56206700    0.00000000
 C                  5.66914600   17.24865000    0.00000000
 C                 13.12580400   15.30515900    0.00000000
 C                  6.94351600   17.85124900    0.00000000
 C                 11.85143300   14.70255900    0.00000000
 C                  6.97166800   19.25969100    0.00000000
 C                 11.82328000   13.29412000    0.00000000
 C                  5.81139000   20.01684000    0.00000000
 C                 12.98356200   12.53697000    0.00000000
 C                  8.18575000   17.05424500    0.00000000
 C                 10.60920100   15.49956500    0.00000000
 C                  8.16858600   15.64672200    0.00000000
 C                 10.62636400   16.90708800    0.00000000
 C                  9.45901800   17.65601800    0.00000000
 C                  9.33593300   14.89779200    0.00000000
 H                  3.53911500   17.47295100    0.00000000
 H                 15.25583500   15.08085900    0.00000000
 H                  5.57976600   16.16292700    0.00000000
 H                 13.21518500   16.39088300    0.00000000
 H                  7.92306600   19.78911200    0.00000000
 H                 10.87188500   12.76469600    0.00000000
 H                  5.86623900   21.10721900    0.00000000
 H                 12.92871000   11.44659000    0.00000000
 H                  7.22084800   15.10895500    0.00000000
 H                 11.57410100   17.44485300    0.00000000
 H                  9.55266300   18.74145800    0.00000000
 H                  9.24228800   13.81235200    0.00000000