30
l2
 C                 -4.27535600   18.91358200    0.00000000
 C                 -5.46234000   19.66308200    0.00000000
 C                 -6.69175400   19.01985900    0.00000000
 C                 -6.80707200   17.61492100    0.00000000
 C                 -5.60136600   16.88632100    0.00000000
 C                 -4.36555400   17.51257900    0.00000000
 C                 -8.11841700   16.93762000    0.00000000
 C                 -9.32878600   17.65624500    0.00000000
 C                 -8.23390000   15.53405100    0.00000000
 H                 -5.43248700   20.75237000    0.00000000
 H                 -7.58732900   19.64012800    0.00000000
 H                 -5.61860800   15.79767700    0.00000000
 H                 -3.44868200   16.91988700    0.00000000
 H                 -9.32059700   18.74589200    0.00000000
 H                 -7.34070400   14.91023200    0.00000000
 C                -10.56105100   17.01975900    0.00000000
 C                 -9.46620200   14.89756400    0.00000000
 C                -10.67653300   15.61619000    0.00000000
 H                -11.45424700   17.64357800    0.00000000
 H                 -9.47435200   13.80791500    0.00000000
 C                -11.98787700   14.93888600    0.00000000
 C                -12.10319700   13.53394900    0.00000000
 C                -13.19354600   15.66748800    0.00000000
 C                -13.33261000   12.89072600    0.00000000
 H                -11.20762200   12.91368300    0.00000000
 C                -14.42939600   15.04123100    0.00000000
 H                -13.17634100   16.75613200    0.00000000
 C                -14.51959500   13.64022800    0.00000000
 H                -13.36246200   11.80143900    0.00000000
 H                -15.34626700   15.63392100    0.00000000